*Heading
** Job name: Job-1 Model name: Model-1
** Generated by: Abaqus/CAE 2021
*Preprint, echo=NO, model=NO, history=NO, contact=NO
**
** PARTS
**
*Part, name=blank
*Node
      1,           0.,          10.,           0.
      2,          10.,           0.,           0.
      3,           0.,           0.,           0.
      4,           0.,          10.,           1.
      5,          10.,           0.,           1.
      6,           0.,           0.,           1.
      7,        56.25,           0.,           0.
      8,        56.25,           0.,           1.
      9,           0.,        56.25,           1.
     10,           0.,        56.25,           0.
     11,           0.,        0.625,           0.
     12,           0.,         1.25,           0.
     13,           0.,        1.875,           0.
     14,           0.,          2.5,           0.
     15,           0.,        3.125,           0.
     16,           0.,         3.75,           0.
     17,           0.,        4.375,           0.
     18,           0.,           5.,           0.
     19,           0.,        5.625,           0.
     20,           0.,         6.25,           0.
** ... 4848 like lines cut
*Element, type=C3D8R
  1,  596,   55,  538, 2751,   25,    1,   26,  313
  2, 2751,  538,  539, 2750,  313,   26,   27,  314
  3, 2750,  539,  540, 2749,  314,   27,   28,  315
  4, 2749,  540,  541, 2748,  315,   28,   29,  316
  5, 2748,  541,  542, 2747,  316,   29,   30,  317
  6, 2747,  542,  543, 2746,  317,   30,   31,  318
  7, 2746,  543,  544, 2745,  318,   31,   32,  319
  8, 2745,  544,  545, 2744,  319,   32,   33,  320
  9, 2744,  545,  546, 2743,  320,   33,   34,  321
 10, 2743,  546,  547, 2742,  321,   34,   35,  322
 11, 2742,  547,  548, 2741,  322,   35,   36,  323
 12, 2741,  548,  549, 2740,  323,   36,   37,  324
 13, 2740,  549,  550, 2739,  324,   37,   38,  325
 14, 2739,  550,  551, 2738,  325,   38,   39,  326
 15, 2738,  551,  552, 2737,  326,   39,   40,  327
 16,  552,  553, 2752, 2737,   40,   41,  328,  327
 17,  553,  554, 2753, 2752,   41,   42,  329,  328
 18,  554,  555, 2754, 2753,   42,   43,  330,  329
 19,  555,  556, 2755, 2754,   43,   44,  331,  330
 20,  556,  557, 2756, 2755,   44,   45,  332,  331
** ... 3445 like lines cut
*Nset, nset=Set-1, generate
    1,  4868,     1
*Elset, elset=Set-1, generate
    1,  3465,     1
*Orientation, name=Ori-1
1., 0., 0., 0., 1., 0.
1, 0.
** Section: Al_killed_section
*Solid Section, elset=Set-1, orientation=Ori-1, material=Al_killed_steel
,
*End Part
**  
*Part, name=die
*End Part
**  
*Part, name=punch
*End Part
**  
**
** ASSEMBLY
**
*Assembly, name=Assembly
**  
*Instance, name=blank-1, part=blank
      128.25,          16., -1.11022302462516e-16
      128.25,          16., -1.11022302462516e-16, 129.250000012688,          16., -1.11022302462516e-16, 89.9999992730282
*End Instance
**  
*Instance, name=die-1, part=die
      128.25,           0.,           0.
*Node
      1,           0.,  -36.8467865, -1.80635409e-15
*Nset, nset=die-1-RefPt_, internal
1, 
*Surface, type=REVOLUTION, name=m_Surf-1
START,         44.5, -36.8467875173176
 LINE,         29.5, -36.8467875173176
 LINE,         29.5, -31.8467875173176
 LINE,         24.5, -31.8467875173176
 LINE,         24.5, -13.1865334794732
 CIRCL, 25.1698729810778, -10.6865334794732,         29.5, -13.1865334794732
 LINE, 37.1132486540519,          10.
 CIRCL, 45.7735026918963,          15., 45.7735026918963,           5.
 LINE,          60.,          15.
*Rigid Body, ref node=die-1-RefPt_, analytical surface=m_Surf-1
*End Instance
**  
*Instance, name=punch-1, part=punch
      128.25,    16.057663,           0.
*Node
      1,           0.,    69.942337, -1.37772768e-15
*Nset, nset=punch-1-RefPt_, internal
1, 
*Surface, type=REVOLUTION, name=m_Surf-3
START,         22.5, 69.9423370361328
 LINE,         22.5, 5.94233703613281
 CIRCL,         16.5, -0.0576629638671875,         16.5, 5.94233703613281
 LINE,           0., -0.0576629638671875
*Rigid Body, ref node=punch-1-RefPt_, analytical surface=m_Surf-3
*End Instance
**  
*Nset, nset=Set-1, instance=die-1
 1,
*Nset, nset=Set-2, instance=punch-1
 1,
*Nset, nset=Set-3, instance=blank-1
   1,   3,   4,   6,   9,  10,  11,  12,  13,  14,  15,  16,  17,  18,  19,  20
  21,  22,  23,  24,  25,  55,  56,  74,  75, 105, 106, 107, 108, 109, 110, 111
 112, 113, 114, 115, 116, 117, 118, 119, 253, 254, 255, 256, 257, 258, 259, 260
 261, 262, 263, 264, 265, 266, 267, 268, 269, 270, 271, 272, 273, 274, 275, 276
 277, 278, 279, 280, 281, 282, 283, 284, 285, 286, 287, 288, 289, 290, 291, 292
 293, 294, 295, 296, 297, 298, 299, 300, 301, 302, 303, 304, 305, 306, 307, 308
 309, 310, 311, 312, 596, 597, 598, 599, 600, 601, 602, 603, 604, 605, 606, 607
 608, 609, 610, 611, 612, 613, 614, 615, 616, 617, 618, 619, 620, 621, 622, 623
 624, 625, 939, 940, 941, 942, 943, 944, 945, 946, 947, 948, 949, 950, 951, 952
 953, 954, 955, 956, 957, 958, 959, 960, 961, 962, 963, 964, 965, 966, 967, 968
 969, 970, 971, 972, 973, 974, 975, 976, 977, 978, 979, 980, 981, 982, 983, 984
 985, 986, 987, 988, 989, 990, 991, 992, 993, 994, 995, 996
*Elset, elset=Set-3, instance=blank-1
    1,   45,   60,   75,   90,  105,  120,  135,  150,  165,  180,  195,  210,  225,  240,  255
  256,  257,  316,  317,  318,  319,  320,  321,  322,  323,  324,  325,  326,  327,  328,  329
  330,  331,  332,  333,  334,  335,  336,  337,  338,  339,  340,  341,  342,  343,  344,  345
 3376, 3377, 3378, 3379, 3380, 3381, 3382, 3383, 3384, 3385, 3386, 3387, 3388, 3389, 3390, 3391
 3392, 3393, 3394, 3395, 3396, 3397, 3398, 3399, 3400, 3401, 3402, 3403, 3404, 3405, 3406, 3407
 3408, 3409, 3410, 3411, 3412, 3413, 3414, 3415, 3416, 3417, 3418, 3419, 3420, 3421, 3422, 3423
 3424, 3425, 3426, 3427, 3428, 3429, 3430, 3431, 3432, 3433, 3434, 3435, 3436, 3437, 3438, 3439
 3440, 3441, 3442, 3443, 3444, 3445, 3446, 3447, 3448, 3449, 3450, 3451, 3452, 3453, 3454, 3455
 3456, 3457, 3458, 3459, 3460, 3461, 3462, 3463, 3464, 3465
*Nset, nset=Set-4, instance=blank-1
   2,   3,   5,   6,   7,   8,  57,  58,  59,  60,  61,  62,  63,  64,  65,  66
  67,  68,  69,  70,  71,  72,  73,  74,  75, 120, 121, 122, 123, 124, 125, 126
 127, 128, 129, 130, 131, 132, 133, 134, 135, 136, 137, 138, 139, 140, 141, 142
 143, 144, 145, 146, 147, 148, 149, 150, 151, 152, 153, 154, 155, 156, 157, 158
 159, 160, 161, 162, 163, 164, 165, 166, 167, 168, 169, 170, 171, 172, 173, 174
 175, 176, 177, 178, 179, 180, 181, 182, 183, 184, 185, 186, 187, 188, 189, 190
 191, 192, 193, 194, 626, 627, 628, 629, 630, 631, 632, 633, 634, 635, 636, 637
 638, 639, 640, 641, 642, 643, 644, 645, 646, 647, 648, 649, 650, 651, 652, 653
 654, 655, 881, 882, 883, 884, 885, 886, 887, 888, 889, 890, 891, 892, 893, 894
 895, 896, 897, 898, 899, 900, 901, 902, 903, 904, 905, 906, 907, 908, 909, 910
 911, 912, 913, 914, 915, 916, 917, 918, 919, 920, 921, 922, 923, 924, 925, 926
 927, 928, 929, 930, 931, 932, 933, 934, 935, 936, 937, 938
*Elset, elset=Set-4, instance=blank-1
  30,  31,  32,  33,  34,  35,  36,  37,  38,  39,  40,  41,  42,  43,  44,  45
 300, 315, 316, 317, 346, 347, 376, 377, 406, 407, 436, 437, 466, 467, 496, 497
 526, 527, 556, 557, 586, 587, 616, 617, 646, 647, 676, 677, 706, 707, 736, 737
 766, 767, 768, 769, 770, 771, 772, 773, 774, 775, 776, 777, 778, 779, 780, 781
 782, 783, 784, 785, 786, 787, 788, 789, 790, 791, 792, 793, 794, 795, 796, 797
 798, 799, 800, 801, 802, 803, 804, 805, 806, 807, 808, 809, 810, 811, 812, 813
 814, 815, 816, 817, 818, 819, 820, 821, 822, 823, 824, 825, 826, 827, 828, 829
 830, 831, 832, 833, 834, 835, 836, 837, 838, 839, 840, 841, 842, 843, 844, 845
 846, 847, 848, 849, 850, 851, 852, 853, 854, 855
*Elset, elset=_s_Surf-1_S4, internal, instance=blank-1
 257, 259, 261, 263, 265, 267, 269, 271, 273, 275, 277, 279, 281, 283, 285, 317
 319, 321, 323, 325, 327, 329, 331, 333, 335, 337, 339, 341, 343, 345, 347, 349
 351, 353, 355, 357, 359, 361, 363, 365, 367, 369, 371, 373, 375, 377, 379, 381
 383, 385, 387, 389, 391, 393, 395, 397, 399, 401, 403, 405, 407, 409, 411, 413
 415, 417, 419, 421, 423, 425, 427, 429, 431, 433, 435, 437, 439, 441, 443, 445
 447, 449, 451, 453, 455, 457, 459, 461, 463, 465, 467, 469, 471, 473, 475, 477
 479, 481, 483, 485, 487, 489, 491, 493, 495, 497, 499, 501, 503, 505, 507, 509
 511, 513, 515, 517, 519, 521, 523, 525, 527, 529, 531, 533, 535, 537, 539, 541
 543, 545, 547, 549, 551, 553, 555, 557, 559, 561, 563, 565, 567, 569, 571, 573
 575, 577, 579, 581, 583, 585, 587, 589, 591, 593, 595, 597, 599, 601, 603, 605
 607, 609, 611, 613, 615, 617, 619, 621, 623, 625, 627, 629, 631, 633, 635, 637
 639, 641, 643, 645, 647, 649, 651, 653, 655, 657, 659, 661, 663, 665, 667, 669
 671, 673, 675, 677, 679, 681, 683, 685, 687, 689, 691, 693, 695, 697, 699, 701
 703, 705, 707, 709, 711, 713, 715, 717, 719, 721, 723, 725, 727, 729, 731, 733
 735, 737, 739, 741, 743, 745, 747, 749, 751, 753, 755, 757, 759, 761, 763, 765
*Elset, elset=_s_Surf-1_S3, internal, instance=blank-1, generate
 286,  300,    1
*Elset, elset=_s_Surf-1_S6, internal, instance=blank-1, generate
  766,  3463,     3
*Surface, type=ELEMENT, name=s_Surf-1
_s_Surf-1_S4, S4
_s_Surf-1_S3, S3
_s_Surf-1_S6, S6
*Elset, elset=_s_Surf-3_S4, internal, instance=blank-1, generate
  768,  3465,     3
*Elset, elset=_s_Surf-3_S2, internal, instance=blank-1, generate
   1,  255,    1
*Surface, type=ELEMENT, name=s_Surf-3
_s_Surf-3_S4, S4
_s_Surf-3_S2, S2
*End Assembly
** 
** MATERIALS
** 
*Material, name=Al_killed_steel
*Elastic
209000., 0.3
*Plastic
 131.233,    0.
 154.664, 0.002
 170.263, 0.004
 182.277, 0.006
 192.176, 0.008
 200.662,  0.01
 208.129, 0.012
 214.821, 0.014
 220.902, 0.016
 226.487, 0.018
 231.661,  0.02
 236.488, 0.022
 241.017, 0.024
 245.288, 0.026
 249.332, 0.028
 253.175,  0.03
 256.839, 0.032
 260.341, 0.034
 263.699, 0.036
 266.924, 0.038
** ... 236 like lines cut
*Potential
1., 1.0256,  1.252, 1.0897,     1.,     1.
** 
** INTERACTION PROPERTIES
** 
*Surface Interaction, name=IntProp-1
1.,
*Friction, slip tolerance=0.005
 0.15,
*Surface Behavior, pressure-overclosure=HARD
** 
** INTERACTIONS
** 
** Interaction: blank_punch
*Contact Pair, interaction=IntProp-1, type=SURFACE TO SURFACE
s_Surf-3, punch-1.m_Surf-3
** Interaction: die_blank
*Contact Pair, interaction=IntProp-1, type=SURFACE TO SURFACE, adjust=0.0
s_Surf-1, die-1.m_Surf-1
** ----------------------------------------------------------------
** 
** STEP: Step-1
** 
*Step, name=Step-1, nlgeom=YES, inc=1000
*Static
0.001, 1., 1e-05, 1.
** 
** BOUNDARY CONDITIONS
** 
** Name: blank_xy Type: Displacement/Rotation
*Boundary
Set-4, 3, 3
** Name: blank_yz Type: Displacement/Rotation
*Boundary
Set-3, 1, 1
** Name: die Type: Symmetry/Antisymmetry/Encastre
*Boundary
Set-1, ENCASTRE
** Name: punch Type: Displacement/Rotation
*Boundary
Set-2, 1, 1
Set-2, 2, 2, -123.
Set-2, 3, 3
Set-2, 4, 4
Set-2, 5, 5
Set-2, 6, 6
** 
** OUTPUT REQUESTS
** 
*Restart, write, frequency=0
** 
** FIELD OUTPUT: F-Output-1
** 
*Output, field, variable=PRESELECT
** 
** HISTORY OUTPUT: H-Output-1
** 
*Output, history, variable=PRESELECT
*End Step
